REMARK  Name = 8D3
REMARK  7 active torsions:
REMARK  status: ('A' for Active; 'I' for Inactive)
REMARK    1  A    between atoms: C_5  and  C_16
REMARK    2  A    between atoms: C_16  and  C_17
REMARK    3  A    between atoms: C_17  and  C_20
REMARK    4  A    between atoms: C_20  and  C_21
REMARK    5  A    between atoms: C_21  and  C_22
REMARK    6  A    between atoms: C_22  and  C_23
REMARK    7  A    between atoms: C_23  and  C_24
REMARK                            x       y       z     vdW  Elec       q    Type
REMARK                         _______ _______ _______ _____ _____    ______ ____
ROOT
ATOM      1  C   UNL     1     -39.903-164.552 306.043  0.00  0.00    +0.000 A 
ATOM      2  O   UNL     1     -39.004-165.489 305.620  0.00  0.00    +0.000 OA
ATOM      3  O   UNL     1     -41.883-163.801 308.965  0.00  0.00    +0.000 OA
ATOM      4  C   UNL     1     -40.234-163.510 305.189  0.00  0.00    +0.000 A 
ATOM      5  C   UNL     1     -41.142-162.550 305.603  0.00  0.00    +0.000 A 
ATOM      6  C   UNL     1     -40.472-164.644 307.330  0.00  0.00    +0.000 A 
ATOM      7  C   UNL     1     -41.403-164.717 310.006  0.00  0.00    +0.000 C 
ATOM      8  C   UNL     1     -41.720-162.689 306.855  0.00  0.00    +0.000 A 
ATOM      9  C   UNL     1     -40.264-168.129 309.641  0.00  0.00    +0.000 C 
ATOM     10  C   UNL     1     -40.254-168.156 308.247  0.00  0.00    +0.000 C 
ATOM     11  C   UNL     1     -40.459-166.976 307.509  0.00  0.00    +0.000 C 
ATOM     12  C   UNL     1     -40.191-165.652 308.265  0.00  0.00    +0.000 C 
ATOM     13  C   UNL     1     -42.477-164.847 311.087  0.00  0.00    +0.000 C 
ATOM     14  C   UNL     1     -40.107-164.179 310.625  0.00  0.00    +0.000 C 
ATOM     15  C   UNL     1     -40.038-169.359 307.582  0.00  0.00    +0.000 C 
ATOM     16  C   UNL     1     -41.230-163.558 307.805  0.00  0.00    +0.000 A 
ATOM     17  C   UNL     1     -41.238-165.971 309.314  0.00  0.00    +0.000 C 
ATOM     18  C   UNL     1     -40.483-166.894 310.237  0.00  0.00    +0.000 C 
ENDROOT
BRANCH   5  19
ATOM     19  C   UNL     1     -41.492-161.475 304.778  0.00  0.00    +0.000 C 
ATOM     20  C   UNL     1     -41.009-161.751 303.355  0.00  0.00    +0.000 C 
ATOM     21  C   UNL     1     -40.799-160.215 305.291  0.00  0.00    +0.000 C 
BRANCH  19  22
ATOM     22  C   UNL     1     -43.005-161.239 304.730  0.00  0.00    +0.000 C 
BRANCH  22  23
ATOM     23  C   UNL     1     -43.733-162.448 304.138  0.00  0.00    +0.000 C 
BRANCH  23  24
ATOM     24  C   UNL     1     -45.235-162.158 304.090  0.00  0.00    +0.000 C 
BRANCH  24  25
ATOM     25  C   UNL     1     -45.965-163.352 303.464  0.00  0.00    +0.000 C 
BRANCH  25  26
ATOM     26  C   UNL     1     -47.465-163.057 303.404  0.00  0.00    +0.000 C 
BRANCH  26  27
ATOM     27  C   UNL     1     -48.229-164.218 302.754  0.00  0.00    +0.000 C
ENDBRANCH  26  27
ENDBRANCH  25  26
ENDBRANCH  24  25
ENDBRANCH  23  24
ENDBRANCH  22  23
ENDBRANCH  19  22
ENDBRANCH   5  19
TORSDOF 7
